resultados/_temp_alt6_1p20/LineSummary.csv
line,maxCurrentA,normAmps,maxLoadingPct,meanLoadingPct,overloadHours
rbt_1607347,93.17763831849273,124.95,74.5719394305664,25.741851569378653,0
sbt_7584,93.17764840966971,163.8,56.88501123911459,19.636414001990307,0
sbt_22840,93.17764378836948,163.8,56.88500841780798,19.636413926583383,0
rbt_630758,30.82528587676653,76.65,40.215637151684966,17.808790164723174,0
rbt_637576,24.660343837635658,61.95,39.80685042394779,14.762475127617622,0
rbt_632607,49.00652497914714,124.95,39.22090834665637,18.46201353885553,0
rbt_1130761,30.428859910577106,90.3,33.69751928081629,15.859619080941465,0
rbt_606147,25.287483335963778,76.65,32.99084583948307,12.484643481300695,0
rbt_605836,25.829805725151747,90.3,28.604436018994186,13.472388550019021,0
rbt_637360,17.6617467598489,61.95,28.509679999756095,13.394458691627657,0
rbt_637918,17.619845510692386,61.95,28.442042793692305,11.427716895263766,0
rbt_626476,15.26015678139368,61.95,24.63302143889214,11.590837595689665,0
rbt_1607350,21.93114466230818,90.3,24.28698190731803,8.843978653567463,0
rbt_606126,13.519565468088011,61.95,21.823350230973382,7.847098246230012,0
rbt_3405844,18.93793245015996,90.3,20.97223970117382,7.267253084887723,0
rbt_1633671,12.992220373873648,61.95,20.97210714103898,10.406482121657225,0
rbt_1627323,15.019266753125763,76.65,19.5946076361719,9.219517960078425,0
rbt_606143,14.821954907044065,76.65,19.337188397970078,6.8902355549769645,0
sbt_34378,24.657295657775258,128.1,19.248474362041577,9.445370432468064,0
sbt_34379,24.58032567774399,128.1,19.18838850721623,9.30977212693478,0
rbt_637397,11.715108707052075,61.95,18.910587097743463,8.888227333235877,0
rbt_635862,10.772154621122972,61.95,17.38846589366097,5.996243528754568,0
rbt_3435739,13.112005631661113,76.65,17.106334809734,8.494310105223287,0
rbt_605816,10.168365687945473,61.95,16.413826776344585,6.287461169454411,0
smt_19119,26.14333944408543,163.8,15.960524691138843,9.78020379169836,0
smt_17184,26.14215772103209,163.8,15.959803248493337,9.779690835973401,0
sbt_24791,25.287504605826133,163.8,15.438036999893853,5.84217355053179,0
sbt_3174,25.287495742969924,163.8,15.438031589114726,5.842175162112965,0
rbt_609688,11.162223861311947,76.65,14.562588207843374,5.383791958631021,0
rbt_1638954,8.578484677204802,61.95,13.847432892985958,6.509386236420943,0
rbt_1607265,12.050624263677083,90.3,13.345098852355575,6.280969204217796,0
rbt_606139,9.295364138817286,76.65,12.127024316787065,4.398322953676442,0
sbt_9361,25.829805807174587,216.3,11.941657793423294,5.624395195220135,0
rbt_623004,7.220960044440068,61.95,11.656109837675654,4.6375800597565595,0
rbt_606121,6.96195349354592,61.95,11.238020167144342,5.280309910099986,0
sbt_11363,18.010175462381792,163.8,10.995223115007198,4.1691470448570245,0
rbt_1605991,6.657761368563494,61.95,10.746991716809513,5.052868837402326,0
rbt_1607280,6.6050551079000615,61.95,10.661913007102601,5.01078449877938,0
sbt_34393,13.288676475659864,128.1,10.373674063746966,6.820164595844566,0
rbt_606114,9.030304698243718,90.3,10.000337428841327,4.700794814548249,0
rbt_627337,8.790239881549379,90.3,9.734484918659335,4.577837973194183,0
rbt_1621994,8.624007547291418,90.3,9.550395954918514,4.488272272442971,0
rbt_626678,8.425240410468477,90.3,9.3302773094889,4.388140095924041,0
rbt_635543,5.768518277705747,61.95,9.311571069742932,3.7841362484006082,0
rbt_606150,5.734882410550985,61.95,9.257275884666642,4.348998447835247,0
rbt_1607272,8.253816394027707,90.3,9.14043897456003,4.301160553930566,0
smt_34713,26.12905674890494,286.65,9.115317198292322,5.585163682852101,0
smt_34700,26.128903041069098,286.65,9.115263576162254,5.585125975293917,0
smt_34701,26.128538929026217,286.65,9.11513655294827,5.585036669966615,0
smt_34715,26.128227552213406,286.65,9.115027926814376,5.5849603196114375,0
smt_34702,26.127919136725637,286.65,9.114920333760907,5.584884714177101,0
smt_34703,26.127496662761807,286.65,9.11477295055357,5.584781178664207,0
smt_34704,26.126988760893667,286.65,9.114595765181814,5.5846567538130545,0
smt_34716,26.126671309006266,286.65,9.114485019712633,5.584579010796564,0
smt_34705,26.126352126952582,286.65,9.114373670661987,5.584500864064494,0
smt_34717,26.125971782717134,286.65,9.11424098472602,5.584407768839999,0
smt_34706,26.125586674169487,286.65,9.114106636724049,5.5843135364810275,0
smt_34707,26.125133224004312,286.65,9.11394844723681,5.584202618919338,0
smt_34708,26.124710726487255,286.65,9.113801055812754,5.584099309002688,0
smt_34709,26.124165472213793,286.65,9.113610839774566,5.58396603423063,0
smt_34718,26.12386171561503,286.65,9.11350487200943,5.583891813271356,0
smt_34710,26.123564657783483,286.65,9.113401241159423,5.583819246661586,0
smt_34719,26.123253959405766,286.65,9.113292851702692,5.58374336644379,0
smt_34711,26.122944256379135,286.65,9.113184809481647,5.583667748148021,0
smt_34720,26.122591129266752,286.65,9.113061618442963,5.583581550266096,0
smt_34712,26.122265343746008,286.65,9.11294796572336,5.583502048148546,0
smt_34721,26.122031571770048,286.65,9.112866412618192,5.583445012584765,0
smt_34714,26.12202195815081,286.65,9.1128630588351,5.5834426676672555,0
rbt_623007,5.640165395348818,61.95,9.104383204759998,4.277790942237013,0
sbt_22748,19.521660589860407,216.3,9.025270730402408,4.247056966120166,0
sbt_7427,19.521652436045365,216.3,9.0252669607237,4.247053061253244,0
sbt_34383,11.548092770251527,128.1,9.014904582553886,5.310999118956263,0
sbt_34392,11.548089650257754,128.1,9.014902146961559,5.652342562407134,0
sbt_34384,11.53318430982333,128.1,9.003266440143115,4.349298765498815,0
rbt_1630759,6.825252279069403,76.65,8.9044387202471,4.18880427425217,0
rbt_606122,5.512295549053044,61.95,8.897975059004105,4.182433843868789,0
rbt_1229546,8.001007904751432,90.3,8.860473870156625,4.167212896223069,0
rbt_1638606,5.458532216041016,61.95,8.811190017822463,4.143330358133337,0
rbt_605905,7.809144222933857,90.3,8.648000246881347,4.065522488499955,0
smt_29422,26.145914716188834,305.0,8.572431054488142,5.252014919922332,0
rbt_1607283,7.73055355364254,90.3,8.5609673905233,4.027642098146473,0
smt_31417,27.902080201939103,327.6,8.517118498760409,5.242487826796341,0
smt_31416,27.902032127005196,327.6,8.517103823872159,5.242477499511078,0
smt_31411,27.902013804187447,327.6,8.517098230826448,5.242473564009269,0
smt_31412,27.90199307203223,327.6,8.51709190232974,5.242469110611668,0
smt_31413,27.90187013546471,327.6,8.517054375904978,5.242442705092799,0
smt_31414,27.901777749860326,327.6,8.517026175171038,5.242422863196063,0
smt_31415,27.901543651433656,327.6,8.516954716554839,5.242372591051399,0
smt_4387,27.901158668875166,327.6,8.516837200511345,5.242289935525062,0
smt_4863,27.900714451931705,327.6,8.516701603153756,5.242194591050452,0
smt_4693,27.900341769241685,327.6,8.516587841648866,5.242114624044086,0
smt_17964,27.900120254774386,327.6,8.516520224290106,5.233376922969171,0
smt_4591,27.900001176448995,327.6,8.51648387559493,5.242041561522047,0
smt_6826,27.899657130450418,327.6,8.516378855448844,5.233277028482473,0
smt_4627,27.89963971881457,327.6,8.516373540541688,5.241964042968855,0
smt_4527,27.899350597236896,327.6,8.516285286091849,5.241902052291803,0
smt_7012,27.89912251500776,327.6,8.516215663921782,5.233161755277752,0
smt_23134,27.898880573266613,327.6,8.516141811131444,5.241801302070802,0
smt_22791,27.898643429783583,327.6,8.51606942301086,5.233058493400727,0
smt_18545,27.89845913560792,327.6,8.516013167157483,5.241710995622403,0
smt_7020,27.898084149467135,327.6,8.515898702523545,5.232937991648279,0
smt_10381,27.89801262473955,327.6,8.515876869578616,5.241615346682598,0
smt_18806,27.897787052698057,327.6,8.515808013644095,5.24156703771185,0
smt_24122,27.897713637209215,327.6,8.515785603543716,5.241551317053185,0
smt_6842,27.89765379018119,327.6,8.515767335220144,5.232845300319523,0
smt_6830,27.897000892885423,327.6,8.515568038121312,5.2327047337177195,0
smt_31407,27.896215592823665,327.6,8.515328325037748,5.232535749397925,0
smt_29390,27.89585109784024,327.6,8.515217062832797,5.232547008668717,0
smt_31408,27.895734641224276,327.6,8.515181514415223,5.240942183477164,0
smt_17776,27.895219957108317,327.6,8.51502440693172,5.232410078459394,0
smt_10747,27.89457767877276,327.6,8.514828351273735,5.232270795893793,0
smt_18202,27.89401989912469,327.6,8.514658088865898,5.23214988981009,0
smt_17794,27.89350228478403,327.6,8.514500086930411,5.232037733650711,0
smt_29420,27.893182446987645,327.6,8.514402456345433,5.231968452447815,0
smt_22739,27.892995529928612,327.6,8.514345399856108,5.231927971081357,0
smt_17795,27.892379199623438,327.6,8.51415726484232,5.231794528713071,0
smt_29389,27.891691580071683,327.6,8.51394736876425,5.2316457215271415,0
smt_19163,27.891099046956594,327.6,8.513766497849998,5.231517551194636,0
smt_17961,27.89072138623509,327.6,8.513651216799477,5.231435888358901,0
smt_29388,27.890285809402076,327.6,8.51351825683824,5.231341729802175,0
smt_17962,27.88975044575475,327.6,8.513354836921474,5.2312260409451445,0
rbt_1107340,7.401429003042316,90.3,8.196488375462144,3.8574067710671542,0
rbt_1626486,7.40095723985797,90.3,8.19596593561237,3.851577503212852,0
rbt_605822,7.400672252229873,90.3,8.19565033469532,3.857184390495162,0
rbt_1607287,7.394149071342039,90.3,8.188426435594726,3.851861609430253,0
smt_6447,26.20779767086069,327.6,7.999938238968464,4.903633508284625,0
smt_6627,26.20740455407641,327.6,7.999818239950063,4.9035504734510535,0
smt_24630,26.20677780098248,327.6,7.999626923376825,4.903418143941574,0
smt_24629,26.206391059059033,327.6,7.99950887028664,4.903336522572097,0
smt_24628,26.205875421796087,327.6,7.999351471854727,4.903227737581754,0
smt_24627,26.20549258148779,327.6,7.999234609733757,4.903146998316426,0
smt_6957,26.205134435398797,327.6,7.999125285530768,4.90307148951245,0
smt_6431,26.204688702959594,327.6,7.99898922556764,4.9029775451800655,0
smt_24626,26.204317753160954,327.6,7.998875993028373,4.902899388118592,0
smt_12228,26.203914417499192,327.6,7.998752874694502,4.902814434074281,0
rbt_606132,4.945728208945372,61.95,7.983419223479212,3.751036392391777,0
smt_6510,26.153271591165993,327.6,7.983294136497555,4.891256542111498,0
smt_19223,26.152728142093018,327.6,7.983128248502141,4.891140980185913,0
smt_22843,26.152265551837683,327.6,7.982987042685495,4.891042652394824,0
smt_6737,26.151862056093158,327.6,7.982863875486311,4.890956915612427,0
smt_24665,26.151336240023195,327.6,7.98270336997045,4.890845229491345,0
smt_24635,26.150793000153055,327.6,7.982537545834265,4.890729892207591,0
smt_24637,26.150230866738113,327.6,7.982365954437763,4.890610596786252,0
smt_24636,26.149681124888772,327.6,7.982198145570443,4.890493983445915,0
smt_19174,26.14918057905782,327.6,7.982045353802753,4.890387850789117,0
smt_6686,26.148590060847354,327.6,7.981865097938752,4.89026269609664,0
smt_19173,26.147596976711082,327.6,7.981561958703017,4.890052356066417,0
smt_19172,26.147261384944915,327.6,7.981459519213955,4.8899813142407,0
smt_6544,26.14689518433692,327.6,7.98134773636658,4.889903814826425,0
smt_6535,26.146353890012733,327.6,7.981182506108893,4.889789302182241,0
smt_24634,26.14517052061275,327.6,7.980821282238323,4.889539131391646,0
smt_24633,26.144748211746524,327.6,7.980692372327998,4.889449911278688,0
smt_24632,26.144293907839558,327.6,7.98055369592172,4.889353965702612,0
smt_1873,26.143846759163424,327.6,7.980417203651838,4.889259565772488,0
smt_24631,26.143446077767514,327.6,7.9802948955334285,4.889175004862397,0
smt_6527,26.143029791055184,327.6,7.9801678238874185,4.889087179637239,0
smt_24511,26.142809838761554,327.6,7.9801006833826476,4.889986921864045,0
smt_29446,26.14214347603596,327.6,7.979897275957253,4.889842327963806,0
smt_32671,26.141703981264616,327.6,7.979763120044144,4.889747004216591,0
smt_6389,26.14121882859826,327.6,7.9796150270446455,4.8896418165921185,0
smt_24510,26.14120392971109,327.6,7.979610479154789,4.889638586616639,0
smt_24509,26.140688099723345,327.6,7.979453021893572,4.8895267936810285,0
smt_24508,26.140235924579247,327.6,7.97931499529281,4.889428834229982,0
smt_6426,26.139828282771088,327.6,7.979190562506437,4.889340552823454,0
smt_6420,26.139412661277532,327.6,7.97906369391866,4.889250572944321,0
smt_6140,26.138963527014617,327.6,7.978926595547807,4.889153371348288,0
smt_6653,26.138535113252136,327.6,7.9787958221160356,4.889060686648066,0
smt_6650,26.13811296932522,327.6,7.978666962553485,4.888969389443093,0
smt_29445,26.137698859051675,327.6,7.978540555266078,4.888879859664304,0
smt_24507,26.137272837176866,327.6,7.97841051195875,4.88878778559578,0
smt_24506,26.136848250711424,327.6,7.978280906810569,4.888696053022108,0
smt_24505,26.136410087547407,327.6,7.978147157371003,4.888601419893693,0
smt_24459,26.13603411636574,327.6,7.978032392053033,4.888520245267061,0
smt_24458,26.135581241853675,327.6,7.977894151969986,4.888422499202281,0
smt_24457,26.135125516918198,327.6,7.977755041794321,4.888324173761118,0
smt_24456,26.13470644613927,327.6,7.977627120311132,4.888233788363506,0
smt_24455,26.13427621429912,327.6,7.977495791910598,4.888141027354367,0
smt_24454,26.133863443430158,327.6,7.977369793476849,4.888052061141338,0
smt_19165,26.133407659451027,327.6,7.977230665278092,4.887953858380812,0
smt_17113,26.132931081165523,327.6,7.977085189610965,4.887851213712506,0
smt_6993,26.131885431287266,327.6,7.976766004666443,4.887626140928616,0
smt_24453,26.131250910270552,327.6,7.976572316932402,4.887489654417299,0
smt_24452,26.130759769323735,327.6,7.976422396008466,4.887384056952192,0
smt_24451,26.130329300130533,327.6,7.976290995155839,4.887291538395347,0
smt_24450,26.12992265481082,327.6,7.976166866547868,4.887204169578293,0
smt_6394,26.129477764062813,327.6,7.976031063511237,4.887108616334332,0
smt_24668,26.122010852551956,327.6,7.9737517864932705,4.885509963669646,0
smt_29393,26.121836537915172,327.6,7.973698576897183,4.88547275776176,0
smt_19218,26.12037138319736,327.6,7.973251337972331,4.885160239843959,0
smt_6502,26.119861489089615,327.6,7.973095692640298,4.885051565811774,0
smt_24667,26.11959501515346,327.6,7.973014351389946,4.884994789833603,0
smt_6683,26.118878512215453,327.6,7.972795638649405,4.8848421894509135,0
smt_19220,26.11829709748931,327.6,7.972618161626774,4.884718424885219,0
smt_22844,26.11789272653861,327.6,7.972494727270638,4.884632381501034,0
smt_6687,26.117448377867767,327.6,7.972359089703225,4.884537863903152,0
smt_24666,26.117115237497188,327.6,7.972257398503414,4.884467023726397,0
rbt_623433,7.160483978412076,90.3,7.929661105661213,3.731261611886764,0
rbt_626698,7.113047022112283,90.3,7.877128485174179,3.7023925472753487,0
rbt_1607252,5.992586612377806,76.65,7.818116911125644,3.6769016204850273,0
rbt_637356,4.684153646661579,61.95,7.561184256112314,3.5544336980245004,0
rbt_631391,6.741563139018259,90.3,7.465739910319225,5.654238151285533,0
rbt_605855,5.558354232939603,76.65,7.251603695942078,3.4111750778209924,0
rbt_1607255,6.492955738032421,90.3,7.190427173900798,3.3801952094841674,0
rbt_636933,5.405299416185991,76.65,7.0519235697142735,3.318374389165862,0
rbt_605910,4.246791451166503,61.95,6.855192011568205,3.22024015489561,0
rbt_627343,6.148471768150857,90.3,6.808938835161525,3.19955532557158,0
rbt_1607304,4.131497301764717,61.95,6.669083618667823,3.1319840313398735,0
rbt_1607305,5.835426241849716,90.3,6.462266048560041,3.038312296299709,0
rbt_1607285,3.96524760602907,61.95,6.400722527891961,3.0052227446867588,0
rbt_606103,4.816658662815457,76.65,6.283964335049519,2.9539977670519164,0
rbt_3405846,4.800657053943953,76.65,6.263088132999285,2.9453155178903363,0
rbt_606109,3.8243195805759984,61.95,6.173235803996769,2.900163167925831,0
rbt_605825,5.571744484990439,90.3,6.170259673300596,2.9015727671164164,0
sbt_4580,10.021027279659341,163.8,6.1178432720753,2.878884664633461,0
rbt_1631852,5.515989224064992,90.3,6.108515198300102,2.8713308733003,0
rbt_605993,5.48414425403372,90.3,6.073249450757165,2.85427688442276,0
rbt_621999,5.4440427750159595,90.3,6.028840282409701,2.8339631286997964,0
rbt_630753,5.439985437355974,90.3,6.024347106706505,2.8332321735114636,0
sbt_28279,12.99223254678063,216.3,6.006580003134826,2.9804972808711088,0
sbt_20214,12.992225115249495,216.3,6.00657656738303,2.980497569795526,0
sbt_6049,9.829394775744854,163.8,6.000851511443744,2.8240869932737986,0
smt_6110,19.415832035664188,327.6,5.926688655575148,3.373886932292843,0
rbt_607384,3.601828929240006,61.95,5.814090281259089,2.731757792925847,0
rbt_1607278,4.449618338820955,76.65,5.805111988024729,2.727806292417464,0
rbt_1628760,5.225565219567918,90.3,5.786893930861482,2.7191095148255884,0
smt_24515,18.935923884010688,327.6,5.780196545790807,3.3471531380007646,0
smt_6552,18.93552838098293,327.6,5.780075818370857,3.347057797314106,0
smt_6549,18.935005790303222,327.6,5.779916297406356,3.3469318753589796,0
smt_23959,18.934549442123192,327.6,5.779776996985101,3.346821965827172,0
smt_22744,18.934001956045368,327.6,5.779609876692724,3.3466901688074757,0
smt_19175,18.933546595570448,327.6,5.779470877768757,3.3465806013598765,0
smt_19177,18.93302807909609,327.6,5.779312600456681,3.3464558950416556,0
smt_19176,18.93248310689677,327.6,5.779146247526485,3.346324892138474,0
smt_19164,18.932245813580714,327.6,5.779073813669326,3.34626787166628,0
smt_32311,18.93183748994886,327.6,5.778949172756062,3.34616978347092,0
smt_39119,18.931347700747388,327.6,5.778799664452804,3.3460521765358138,0
smt_32312,18.931324706242968,327.6,5.778792645373311,3.346046656139087,0
smt_32310,18.931305953991895,327.6,5.778786921242947,3.346042154132449,0
smt_32309,18.930852714470678,327.6,5.778648569740744,3.345933375910533,0
smt_32314,18.930645494801958,327.6,5.778585315873613,3.3458836579436197,0
smt_32313,18.930629756572795,327.6,5.778580511774358,3.3458798826910026,0
smt_6802,18.930449316355492,327.6,5.778525432342946,3.405805790375002,0
smt_24514,18.929883293691564,327.6,5.778352653752003,3.405670695006359,0
smt_24513,18.929295436580627,327.6,5.778173210189446,3.405530462827095,0
smt_19166,18.928834138104204,327.6,5.7780323986887066,3.4054204741888356,0
smt_6414,18.92838382822229,327.6,5.777894941459795,3.405313150744853,0
smt_18852,18.927928061895376,327.6,5.777755818649381,3.4052045722625177,0
smt_6403,18.927422335931343,327.6,5.777601445644487,3.4050841453078253,0
smt_1832,18.92698268050908,327.6,5.777467240692637,3.4049794972747898,0
smt_1831,18.926554337839196,327.6,5.777336488961903,3.4048775828701157,0
smt_1829,18.92571333637465,327.6,5.7770797730081345,3.40467760330074,0
smt_1828,18.925104517670178,327.6,5.7768939309127525,3.404532931159429,0
rbt_3433894,5.194858192439405,90.3,5.752888363720271,2.704825100209596,0
smt_6350,18.830300270225038,327.6,5.747954905441098,3.3300126323211376,0
smt_24517,18.828076576300486,327.6,5.747276122191845,3.3296986549873555,0
smt_24520,18.827395013337135,327.6,5.747068074889235,3.329534246797818,0
smt_19116,18.827073172405548,327.6,5.746969832846626,3.3294566484907437,0
rbt_1607357,4.382753893136686,76.65,5.717878529858689,2.687482159092621,0
rbt_605806,4.787618850980137,90.3,5.3019034894575165,2.4916801180415074,0
rbt_622714,4.714715003219308,90.3,5.22116833136136,2.455332720713242,0
smt_6066,8.48072955641707,163.8,5.177490571683193,3.0047585956411997,0
smt_6062,8.480300667759673,163.8,5.1772287348960155,3.0046460575178635,0
smt_6719,8.479826919992352,163.8,5.176939511594842,3.004522221523958,0
smt_6176,8.47929263527008,163.8,5.176613330445713,3.0043819009226618,0
smt_6144,8.478793440220581,163.8,5.1763085715632355,3.0042519045453298,0
smt_6227,8.478264029198588,163.8,5.175985365811103,3.0041139080387893,0
smt_19063,8.477752326757972,163.8,5.175672971158713,3.003981086979492,0
smt_6092,8.477244967191343,163.8,5.175363227833542,3.0038490230536787,0
smt_29474,8.476805271693493,163.8,5.17509479346367,3.003736255698793,0
smt_29473,8.476312898735689,163.8,5.174794199472337,3.003609625098408,0
smt_19115,8.475820151324157,163.8,5.174493376876774,3.003481897352899,0
smt_24512,8.475431528873736,163.8,5.174256122633538,3.0033775603394166,0
rbt_1607258,3.9411579107401793,76.65,5.141758526732132,2.418193348318427,0
smt_37840,8.371521278173542,163.8,5.110818851143798,2.9761062262948013,0
smt_6474,8.371171099839804,163.8,5.110605067057268,2.976014553819745,0
smt_19061,8.370737197076979,163.8,5.1103401691556645,2.9759002223195057,0
smt_29476,8.37031316419843,163.8,5.110081296824438,2.975789750320468,0
smt_6594,8.369795231709436,163.8,5.109765098723709,2.9756541797960634,0
smt_29475,8.369272824393788,163.8,5.109446168738575,2.9755171031969057,0
smt_19011,8.36882237659717,163.8,5.109171170083742,2.975400529825185,0
smt_19014,8.368305861445945,163.8,5.108855837268587,2.9752664424274857,0
rbt_627328,4.601519434484631,90.3,5.095813327225505,2.3986306612486943,0
sbt_5830,8.268486913755627,163.8,5.047916308764119,2.3753650249486387,0
rbt_621168,3.8296729317165616,76.65,4.996311717829826,2.348520396108198,0
rbt_605815,4.493906847338309,90.3,4.9766410269527235,2.340471222367448,0
rbt_1107330,4.492637888113268,90.3,4.975235756493098,2.3417065851429886,0
rbt_621171,3.074865911173126,61.95,4.963463940553875,2.331901472081958,0
rbt_3422597,4.473649177169588,90.3,4.954207283687253,2.3301551664522315,0
rbt_606127,3.0521460989560216,61.95,4.926789505982279,2.3147107784505,0
rbt_635966,3.0352195860725044,61.95,4.899466644184834,2.3021163899505006,0
rbt_1124041,4.413903007331869,90.3,4.888043197488226,2.29909163288129,0
rbt_605921,3.6374652059737,76.65,4.745551475503848,2.230822160724276,0
sbt_14007,7.730553271545396,163.8,4.719507491785956,2.2203666174040215,0
sbt_25907,10.16839006102398,216.3,4.701058742960693,1.8007773905419835,0
sbt_21361,10.16838336076383,216.3,4.701055645290721,1.800777490510269,0
sbt_20771,10.168378010419174,216.3,4.701053171714828,1.800779636715058,0
rbt_627336,4.2225210936986315,90.3,4.676103093796934,2.197209618504183,0
rbt_1627321,4.206512043337006,90.3,4.658374355854935,2.189868171592106,0
rbt_1607355,4.188821613293791,90.3,4.638783624910067,2.180454934519453,0
rbt_605902,2.873266458544109,61.95,4.638041095309296,2.179554246390201,0
sbt_35173,5.835425846939846,128.1,4.555367562013932,2.1417608074728425,0
rbt_1607358,3.487808887209295,76.65,4.550305136607038,2.139109829385853,0
sbt_21952,9.82939395016282,216.3,4.544333772613416,2.138628506928969,0
sbt_20840,7.400672241159089,163.8,4.518114921342545,2.126396469919975,0
sbt_6273,7.394148768669588,163.8,4.514132337405121,2.123461976492505,0
smt_6536,12.856744869213736,286.65,4.485171766688902,2.6355279590588716,0
smt_6703,12.856146437969798,286.65,4.484962999466178,2.6353826356477796,0
smt_6514,12.855559510014585,286.65,4.484758245251904,2.635240257160141,0
smt_6984,12.85546991123549,286.65,4.484726988046569,2.6352185351235247,0
smt_5854,12.85455816647901,286.65,4.484408919057739,2.6349976952515957,0
smt_5855,12.853874916848195,286.65,4.4841705623053185,2.634832438645196,0
smt_5657,12.85331481524818,286.65,4.483975166666032,2.634697119920698,0
smt_21743,12.852724230864233,286.65,4.483769136879203,2.634554585362058,0
smt_22741,12.85211899369487,286.65,4.483557995358406,2.6344086729898475,0
smt_6098,12.851638077917835,286.65,4.483390224286703,2.634292846936512,0
smt_19120,12.851080302363258,286.65,4.483195640105794,2.634158636813298,0
smt_22740,12.850528153700184,286.65,4.48300301890814,2.634025915273195,0
smt_22738,12.8345023457429,286.65,4.477412295741462,2.6281974106235353,0
smt_6754,12.833999897467953,286.65,4.4772370128965475,2.6280755031306104,0
smt_6567,12.83348906181999,286.65,4.477058804053721,2.6279516734862507,0
smt_6746,12.832981179212554,286.65,4.476881625401206,2.627828672566874,0
smt_6812,12.83248199008788,286.65,4.47670747953528,2.6277078868745254,0
rbt_3405838,4.017189565956606,90.3,4.448714912465788,2.093632441451834,0
rbt_622273,2.5571515028637535,57.75,4.427967970326846,2.0844706901230015,0
rbt_1107341,2.7391213157582386,61.95,4.421503334557285,2.08020886476474,0
rbt_638617,2.7283888908579796,61.95,4.4041790005778525,2.0719283363432823,0
rbt_605828,3.968759751217156,90.3,4.39508278097138,2.0685459820037884,0
rbt_1607292,3.8933606105903102,90.3,4.311584286368007,2.0273611049425537,0
rbt_1626490,3.8514702849261204,90.3,4.265194113982415,3.2305690648756897,0
rbt_1635060,2.6421620499249374,61.95,4.2649912024615615,2.005719996652594,0
sbt_37156,6.961953280962287,163.8,4.250276728304204,1.9970401553945838,0
rbt_605867,3.8294138407560343,90.3,4.240768372930271,1.9942488013367667,0
sbt_4615,6.8664462591563495,163.8,4.191969633184584,1.9736825326199743,0
sbt_3373,6.866445077947148,163.8,4.191968912055645,1.9736817437921843,0
sbt_20793,6.866443991698524,163.8,4.1919682489001975,1.9736810252003154,0
sbt_4010,6.866442304147909,163.8,4.191967218649516,1.9736799210718472,0
sbt_28804,6.86644076806922,163.8,4.191966280872538,1.9736789282534328,0
rbt_605812,3.739189919824624,90.3,4.140852624390503,1.949037814458434,0
rbt_632613,3.7361159848022854,90.3,4.13744848815314,1.946273194616728,0
rbt_622713,3.717709717085589,90.3,4.117065024458016,1.9346927948191361,0
rbt_606120,2.5386345881652232,61.95,4.097876655633936,1.9248351826416277,0
sbt_26269,8.790239517667892,216.3,4.063911011404481,1.9111360676191833,0
smt_7052,6.582059697669459,163.8,4.018351463778668,2.1553130558567646,0
rbt_1132019,3.619524472964054,90.3,4.008332749683338,1.8848056765815475,0
rbt_605863,3.6019576657818972,90.3,3.9888789211316693,1.8761774222870755,0
rbt_634166,3.0272860134876343,76.65,3.9494925159656025,1.8559855441047668,0
rbt_1138614,2.430227743487984,61.95,3.9228857844842353,1.844627328143443,0
sbt_4118,11.162231359728237,286.65,3.8940280340932274,1.4396225015873039,0
rbt_605803,3.4983570496446394,90.3,3.874149556638582,1.821292097889744,0
smt_37837,8.372110025759012,216.3,3.8706010290147996,2.2538684510636595,0
smt_37841,8.371743869987428,216.3,3.8704317475670034,2.253794075245208,0
rbt_605834,3.472649526252577,90.3,3.845680538485689,1.8106500777048646,0
rbt_605904,2.3767409624882188,61.95,3.8365471549446624,1.8013454732948484,0
smt_29484,6.281846234172598,163.8,3.8350709610333316,1.8997178932625436,0
smt_22951,6.281832814602111,163.8,3.835062768377356,1.8997096255970025,0
smt_19381,6.280503168798263,163.8,3.834251018802358,1.898891512439411,0
smt_18804,6.279810877487224,163.8,3.8338283745343245,1.8984663961537303,0
smt_19380,6.279017472340772,163.8,3.8333440002080414,1.89797990061182,0
smt_5349,6.278381749458609,163.8,3.832955891000372,1.8975906423062234,0
smt_18803,6.2777360119592345,163.8,3.83256166786278,1.8971957551952991,0
smt_13454,6.277076613734317,163.8,3.8321591048439045,1.8967930392781722,0
smt_19377,6.276292727081513,163.8,3.831680541563805,1.896314986876499,0
smt_29411,6.275307145155164,163.8,3.831078843196071,1.895715003085825,0
smt_8954,6.274701552619769,163.8,3.8307091285834973,1.8953469366855134,0
smt_5584,6.273995568201322,163.8,3.830278124665031,1.8949184280176636,0
rbt_605810,2.9311160538286933,76.65,3.824026162855438,1.7973787023068468,0
rbt_605864,3.4438568531229308,90.3,3.813794964698705,1.7938527911130688,0
rbt_609682,2.9030642417334627,76.65,3.787428886801647,1.7819293959754867,0
rbt_622703,2.329584638705267,61.95,3.7604271811223033,2.8487117032096516,0
rbt_605835,3.393797580568666,90.3,3.758358339500184,1.769519189443515,0
sbt_14006,6.1450520681815055,163.8,3.751558039182848,1.7643275089809514,0
smt_25186,6.063673162357322,163.8,3.7018761674953127,2.0009122902669456,0
sbt_27416,8.001007777861865,216.3,3.6990327220813057,1.7397101776300703,0
sbt_15213,8.00100772253324,216.3,3.6990326965017286,1.7397101656740916,0
rbt_606128,2.8202843321483413,76.65,3.6794316140226235,1.7292196881168194,0
rbt_1607257,3.2925104684307134,90.3,3.646190994939882,1.7140251807378883,0
rbt_607385,3.2857437451467706,90.3,3.638697392189115,1.7115450791540372,0
rbt_3405845,3.2751810536243875,90.3,3.6270000593847036,1.7074301299030614,0
rbt_633056,3.271024333559012,90.3,3.6223968256467467,1.7032289431096992,0
rbt_606141,3.2671089009031444,90.3,3.6180607983423525,1.7033788805079875,0
rbt_623015,3.258718201503184,90.3,3.6087687724287756,2.733494542997818,0
sbt_34389,4.601518191820213,128.1,3.592129736003289,2.7644481309552424,0
smt_37855,7.732494142246638,216.3,3.5748932696470814,1.9502071257559042,0
smt_37854,7.73211056271693,216.3,3.5747159328326075,1.9501609524913206,0
smt_37853,7.7317575469045945,216.3,3.574552726261948,1.9501204004165633,0
smt_37852,7.731395163811408,216.3,3.5743851890020375,1.9500775537600346,0
smt_37851,7.731053808281458,216.3,3.5742273732230503,1.950038966063059,0
smt_37850,7.730698715455312,216.3,3.5740632064056,1.9499982917499779,0
smt_37849,7.730345037906134,216.3,3.5738996939002003,1.9499586638380932,0
smt_37848,7.729978690729385,216.3,3.5737303239618052,1.9499171448875738,0
smt_37847,7.729613684782769,216.3,3.573561574102066,1.9498707749228812,0
smt_37846,7.7293571189990855,216.3,3.5734429583907006,1.9498465972603087,0
smt_37845,7.729006889028843,216.3,3.5732810397729278,1.9498086782670192,0
smt_38000,7.72863354013382,216.3,3.5731084327941836,1.9497644253195354,0
smt_38002,7.728317327239227,216.3,3.572962240979763,1.949714058393788,0
smt_38001,7.728309125888541,216.3,3.5729584493243363,1.9497134340094948,0
smt_37843,7.728296676269957,216.3,3.5729526936060823,1.9497286615615952,0
smt_37842,7.727952263510849,216.3,3.5727934644063097,1.9496824615687531,0
smt_37838,7.727774255094982,216.3,3.57271116740406,1.9496684353105842,0
rbt_605982,3.1921282789717638,90.3,3.535025779592208,1.6633491018233044,0
rbt_1606000,3.1910793260325025,90.3,3.533864148430235,1.6615301195571508,0
rbt_1629639,3.177698385486209,90.3,3.5190458311032216,1.6533949196445745,0
sbt_3952,5.743549569474591,163.8,3.506440518604756,1.6503121379734462,0
sbt_4120,5.743548169495126,163.8,3.5064396639164377,1.6503112258696715,0
sbt_20855,5.743546802609527,163.8,3.506438829431945,1.65031034301618,0
sbt_20854,5.7435455025503135,163.8,3.506438035745002,1.6503095100643919,0
rbt_635963,2.1716227042942284,61.95,3.5054442361488753,1.6465294697894128,0
rbt_626481,3.123009492966108,90.3,3.4584822734951364,1.6257217872925818,0
rbt_1607306,2.6334039044182678,76.65,3.4356215321829975,1.6155174044948293,0
rbt_605901,3.0928178815153067,90.3,3.4250474878353345,1.6094081078133275,0
rbt_605820,2.620509860124346,76.65,3.418799556587535,1.6081215045469905,0
rbt_3405847,3.0855065624123554,90.3,3.4169507889394857,1.6084580814578098,0
sbt_34000,7.347057616332432,216.3,3.3966979271069953,1.596685865285813,0
rbt_1607289,2.60343029746352,76.65,3.396517022131141,1.5961608355431445,0
smt_6512,9.66636380288155,286.65,3.372183430274394,1.9937889937109716,0
smt_6425,9.665962211229756,286.65,3.372043332018056,1.9937015193824668,0
smt_6930,9.66534696928114,286.65,3.371828700255064,1.9935677114776391,0
sbt_20828,5.512294292051257,163.8,3.3652590305563224,1.5818171466434539,0
smt_15243,5.478744064175376,163.8,3.3447765959556626,1.9882176730204446,0
smt_26472,5.47828036036622,163.8,3.3444935044970814,1.9881081096054292,0
smt_14780,5.477754787266496,163.8,3.344172641798837,1.9879831775718912,0
smt_14754,5.477230333438907,163.8,3.343852462416915,1.9878591518763509,0
smt_14729,5.4767084890528634,163.8,3.343533876100649,1.9922555247055131,0
smt_21229,5.476178731509783,163.8,3.3432104587971816,1.9921323114270653,0
smt_26474,5.475679517351871,163.8,3.3429056882490054,1.9920161398947052,0
smt_22453,5.475239203053159,163.8,3.34263687610083,1.9919172834620982,0
smt_14544,5.474710297791022,163.8,3.342313979115398,1.9917968272495952,0
smt_14113,5.474182048332104,163.8,3.341991482498232,1.9916784618092331,0
smt_22508,5.473602494071013,163.8,3.341637664268018,1.9915463987661586,0
smt_14452,5.473091542537321,163.8,3.3413257280447626,1.9914300388793558,0
smt_30311,5.472662766768744,163.8,3.3410639601762786,1.991337188071779,0
smt_26478,5.472133985489602,163.8,3.3407411388825405,1.9912177251687577,0
sbt_37537,7.220991111621427,216.3,3.3384147534079647,1.3282401353342679,0
sbt_37545,7.220982483852437,216.3,3.3384107646104653,1.328240717866184,0
sbt_37546,7.220965798247748,216.3,3.3384030505075115,1.3282396279155455,0
sbt_37539,7.212455755532107,216.3,3.3344686803199757,1.903835992366431,0
sbt_37538,7.21245023619659,216.3,3.3344661286160835,1.9038365139657476,0
rbt_1609690,2.9938518101543545,90.3,3.3154505095840032,1.5578776925597058,0
smt_22686,9.46419156301486,286.65,3.301654129780171,2.0468685757428795,0
smt_6239,9.463717115872468,286.65,3.301488615340125,2.0467624128048647,0
smt_23961,9.463253971662834,286.65,3.30132704401285,2.046658914682444,0
smt_29407,9.462782805161883,286.65,3.301162674049148,2.046553761603836,0
smt_6278,9.462360776401422,286.65,3.301015446154342,2.0464596929628613,0
smt_37856,7.140001156989068,216.3,3.3009714086865776,1.8337755608142385,0
smt_6630,9.461868679637291,286.65,3.300843774511527,2.0463501476441226,0
smt_19070,9.461374198097518,286.65,3.300671270921862,2.046240224785031,0
smt_6639,9.460879967990461,286.65,3.3004988550463845,2.046130511696467,0
smt_19117,9.460418594170326,286.65,3.3003379013327496,2.0460282313548035,0
smt_21514,9.455128198034982,286.65,3.2984923070067973,2.0402331539980803,0
smt_5615,9.454651357147146,286.65,3.2983259574907193,2.0401248488945503,0
smt_18742,9.454279974937977,286.65,3.2981963980247606,2.040040593649908,0
smt_6270,9.453696655121243,286.65,3.2979929025366275,2.039908427970489,0
smt_5967,9.453242920095834,286.65,3.2978346136737606,2.0398057682976147,0
smt_5772,9.452707627856073,286.65,3.297647872965663,2.039684819689145,0
smt_6158,9.45217816483995,286.65,3.297463165825903,2.0395653628710004,0
smt_6263,9.45171958966448,286.65,3.297303188440426,2.0394620403681976,0
smt_6384,9.45115083279355,286.65,3.297104773345038,2.039334074250059,0
smt_22684,9.45059426909867,286.65,3.296910611930462,2.039209046597592,0
smt_22685,9.450140116735534,286.65,3.2967521774762023,2.0391071680917645,0
smt_29447,9.449663931526135,286.65,3.2965860566984606,2.0390004855096713,0
smt_19065,9.449153757179122,286.65,3.296408078555424,2.038886345676327,0
smt_24385,9.44857723932949,286.65,3.296206955984472,2.0387575594912293,0
smt_29448,9.446426199813676,286.65,3.2954565497344066,2.0254972423545463,0
smt_6824,9.445961975786672,286.65,3.295294601704752,2.025389485425445,0
smt_6855,9.445464161746001,286.65,3.2951209355471835,2.0252740777759355,0
smt_19062,9.44488275158073,286.65,3.29491810625527,2.025139482118948,0
smt_7054,9.444420574644854,286.65,3.294756872368691,2.0250326366700917,0
smt_6446,9.443948313156282,286.65,3.2945921204103548,2.024923595346713,0
smt_39006,9.443464409205,286.65,3.2944233068916797,2.0248120082065513,0
smt_39008,9.443027108930888,286.65,3.294270751414927,2.0247112914013337,0
smt_39007,9.443008676757806,286.65,3.294264321213259,2.024707048893228,0
smt_6122,9.442588971321626,286.65,3.294117903827534,2.0246105005766726,0
smt_18741,9.442059281984163,286.65,3.2939331177338786,2.024488807131942,0
smt_5938,9.441568491313701,286.65,3.293761901731625,2.0243762054429246,0
smt_5946,9.441001697745786,286.65,3.2935641715492023,2.024246352257003,0
sbt_34382,4.214528962202094,128.1,3.290030415458309,1.5461436640842408,0
rbt_1625170,2.9692748827074933,90.3,3.2882335356672128,1.545192579641255,0
rbt_605821,4.19848603416895,128.1,3.2775066621147153,1.5399284023589586,0
sbt_35105,4.188821252788501,128.1,3.269961945970727,1.5370417116966892,0
smt_856,5.341612198937178,163.8,3.2610575085086557,1.9477783059828015,0
smt_15622,5.341030986071029,163.8,3.2607026776990407,1.9476370564181915,0
smt_23196,5.340707935027819,163.8,3.2605054548399384,1.947562801821994,0
smt_15581,5.340361581727394,163.8,3.26029400593858,1.947483609476695,0
smt_15568,5.339986637189686,163.8,3.2600651020694054,1.9473971956393754,0
rbt_605988,2.930127153937181,90.3,3.244880569144165,1.5273013267262685,0
rbt_605804,1.9869895005448253,61.95,3.2074083947454803,1.507398017197537,0
smt_23147,5.238811709798492,163.8,3.1982977471297263,1.9167178268731886,0
smt_16038,5.238494928885855,163.8,3.198104352189166,1.9166587361997809,0
smt_13546,5.195911693049579,163.8,3.1721072607140286,1.898219251741322,0
smt_21225,5.1955998378769985,163.8,3.1719168729407805,1.898144891022081,0
smt_13930,5.195038752822414,163.8,3.1715743301724135,1.8980035385639098,0
smt_21226,5.194481683895129,163.8,3.171234239252215,1.897861568403888,0
smt_13280,5.194055460135121,163.8,3.1709740293865205,1.8977550574177748,0
smt_14437,5.193649679293494,163.8,3.1707262999349775,1.8976545964337619,0
smt_13955,5.193240524389915,163.8,3.170476510616554,1.8975538230363174,0
sbt_6048,5.193102620182522,163.8,3.1703923200137494,1.4921134106990628,0
smt_26469,5.1928259909040895,163.8,3.170223437670384,1.8974509392019925,0
smt_20808,5.192463690807677,163.8,3.17000225324034,1.8973628000586205,0
smt_23095,5.192084294280292,163.8,3.16977063142875,1.8972661705661888,0
smt_20807,5.191892961741221,163.8,3.1696538227968385,1.8972247088222263,0
smt_13717,5.1914895600467865,163.8,3.169407545816109,1.8971253214511243,0
rbt_605829,2.8564788438326016,90.3,3.1633209787736454,1.4872022363229345,0
smt_37925,6.828825113721342,216.3,3.157108235654804,1.763054162724262,0
smt_37924,6.828652610500008,216.3,3.157028483818774,1.7630494448410385,0
smt_37923,6.828283458016288,216.3,3.1568578169284733,1.7630150799360476,0
smt_37864,6.827919574359881,216.3,3.156689585926898,1.762970551260449,0
smt_37863,6.82774718635335,216.3,3.156609887357073,1.762954793681877,0
smt_37862,6.827574984114016,216.3,3.1565302746712973,1.7629457215807014,0
smt_37861,6.827290557315489,216.3,3.156398778231849,1.7629235389482343,0
smt_37860,6.826946239837882,216.3,3.1562395930827005,1.7628937304125891,0
smt_37859,6.826583173660236,216.3,3.156071740018602,1.7628557926332649,0
smt_37858,6.826312666502291,216.3,3.155946678919228,1.7628380651031972,0
smt_37831,6.825938644891817,216.3,3.155773760930105,1.7627932232699373,0
sbt_15045,6.825249611252327,216.3,3.155455206311755,1.4843808220544783,0
smt_37898,6.807993785028982,216.3,3.1474774780531583,1.7558186555554414,0
smt_37897,6.807583126344367,216.3,3.147287621980752,1.755766549277954,0
smt_14797,5.155009879345204,163.8,3.147136678476926,1.8793891013688062,0
smt_37896,6.807226319813398,216.3,3.1471226628818294,1.7557243148696537,0
smt_37895,6.806843602504502,216.3,3.1469457246900143,1.7556779378251803,0
smt_23041,5.154599715326396,163.8,3.1468862730930374,1.8792849545120835,0
smt_37894,6.806467009753463,216.3,3.1467716180089984,1.7556319697660856,0
smt_14823,5.154184034738447,163.8,3.146632499840321,1.8791798926955823,0
smt_37893,6.80611082417235,216.3,3.146606945988142,1.7555901080154583,0
smt_37892,6.8057390277223675,216.3,3.146435056737109,1.7555454580871608,0
smt_13752,5.153762311083143,163.8,3.1463750372912958,1.8790656210120584,0
smt_37891,6.805380424342685,216.3,3.146269266917561,1.7555040637976342,0
smt_37890,6.80499910196811,216.3,3.1460929736329675,1.755464872177563,0
smt_37889,6.804483863698166,216.3,3.1458547682377094,1.755394099725092,0
smt_37888,6.804224941588525,216.3,3.1457350631477228,1.7553635892369435,0
smt_37887,6.8039770633062195,216.3,3.1456204638493848,1.7553407095550169,0
smt_37886,6.803593477844859,216.3,3.1454431242925835,1.7552960360166336,0
smt_37885,6.80322389271255,216.3,3.14527225737982,1.7552539749604357,0
smt_37884,6.802850538872785,216.3,3.1450996481150186,1.7552116185119573,0
smt_37883,6.8024759384317415,216.3,3.144926462520454,1.7551698111374325,0
smt_37882,6.802090090240617,216.3,3.1447480768565037,1.7551259241122337,0
smt_37881,6.801717020697468,216.3,3.1445755990279554,1.7550845397769594,0
smt_37880,6.801338395251913,216.3,3.1444005525898815,1.755041500030089,0
smt_37879,6.800982462256266,216.3,3.1442359973445515,1.7550039213592266,0
smt_37878,6.800590016837719,216.3,3.1440545616448072,1.7549598213081863,0
smt_37877,6.800220867705794,216.3,3.1438838963041116,1.7549202366170542,0
smt_37876,6.799838187063692,216.3,3.14370697506412,1.754878886053661,0
smt_37875,6.799453757965161,216.3,3.1435292454762647,1.7548375999239259,0
smt_37874,6.799067803965672,216.3,3.1433508108949013,1.754795805679678,0
smt_37873,6.798692942740305,216.3,3.143177504734306,1.754754671913556,0
smt_37945,6.79834495219836,216.3,3.1430166214509296,1.7547130039281063,0
smt_37944,6.798096880938178,216.3,3.142901932934895,1.7546890042114767,0
smt_37943,6.79780642060924,216.3,3.142767647068535,1.754661154824486,0
smt_37942,6.797464812993468,216.3,3.142609714745015,1.7546254724028965,0
smt_37941,6.797126086024608,216.3,3.142453114204627,1.7545902823217796,0
smt_37940,6.796790496633231,216.3,3.1422979642317292,1.7545561409621027,0
smt_37939,6.796447833164442,216.3,3.1421395437653454,1.7545214971443774,0
smt_37938,6.796097935480012,216.3,3.141977778770232,1.7544861765434099,0
smt_37937,6.795743954397918,216.3,3.141814125935237,1.7544501394997314,0
smt_37936,6.795396040697126,216.3,3.141653278177127,1.754415261443418,0
smt_37935,6.795047962482948,216.3,3.141492354361048,1.754378810857293,0
smt_37934,6.79473310851318,216.3,3.141346790805908,1.7543491847732726,0
smt_37933,6.794389026337081,216.3,3.1411877144415534,1.7543154213375172,0
smt_37932,6.794042996147505,216.3,3.1410277374699516,1.7542815876036555,0
smt_23225,5.141118123323746,163.8,3.1386557529449,1.8723897242921126,0
smt_21220,5.140653230706662,163.8,3.138371935718353,1.872267926090642,0
smt_14845,5.140167526398468,163.8,3.1380754129416775,1.8721412793867118,0
smt_26425,5.139664655382747,163.8,3.137768409879577,1.8720105387008774,0
smt_20810,5.139164932182099,163.8,3.1374633285604996,1.8718800435810676,0
smt_26429,5.138744083554383,163.8,3.137206400216351,1.871771727953665,0
smt_26430,5.138326661371376,163.8,3.136951563718789,1.8716648028984368,0
smt_21222,5.125267206620959,163.8,3.128978758620854,1.8659616637762513,0
smt_14301,5.124926825785745,163.8,3.128770955913153,1.8658703007787611,0
smt_23277,5.124496769084247,163.8,3.128508406034338,1.8657537376532807,0
smt_26427,5.12409223923179,163.8,3.128261440312448,1.8656451161081697,0
rbt_1607316,2.824629779155159,90.3,3.1280506967388253,2.370435495096035,0
smt_20812,5.123665883210574,163.8,3.1280011497012046,1.86553085894056,0
smt_15154,5.123238571961965,163.8,3.127740275923055,1.8654165125975988,0
rbt_1107342,1.9376193084446025,61.95,3.1277147836071064,1.4707048370456128,0
smt_14674,5.122835574248965,163.8,3.127494245573238,1.8653105600117528,0
smt_37986,6.718097966735051,216.3,3.1059167668677996,1.776458035597454,0
smt_37987,6.717833421260225,216.3,3.105794461978837,1.7764194134611702,0
smt_37993,6.7174954308952115,216.3,3.105638201985766,1.7763646538910134,0
smt_37920,6.717326444162847,216.3,3.105560075895907,1.776344331566097,0
smt_37919,6.716916251223736,216.3,3.1053704351473583,1.7762824851800503,0
smt_37918,6.716513578621791,216.3,3.1051842712074853,1.776221801590853,0
smt_37917,6.716128362958617,216.3,3.1050061779743956,1.776164624132531,0
smt_37916,6.715731449759289,216.3,3.1048226767264397,1.7761055636788061,0
smt_37915,6.715339920277874,216.3,3.104641664483529,1.7760453154783102,0
smt_37914,6.715049058546259,216.3,3.1045071930403414,1.7760045694029618,0
smt_37913,6.714668244555,216.3,3.1043311347919555,1.7759491509844831,0
smt_37912,6.714267493722018,216.3,3.1041458593259446,1.7758902773359153,0
smt_40685,6.713879353443573,216.3,3.103966413982234,1.7758332541057815,0
smt_37911,6.7135116845454474,216.3,3.103796432984488,1.7757713750671258,0
smt_37910,6.713490132988582,216.3,3.1037864692503843,1.77577756600422,0
smt_37909,6.713095533432644,216.3,3.103604037648009,1.775720447498111,0
smt_37908,6.712708699343319,216.3,3.103425196182764,1.775665346362741,0
smt_40683,6.712304191939579,216.3,3.1032381839757646,1.7756067690843045,0
smt_37906,6.711928187857687,216.3,3.103064349448769,1.775553604928555,0
smt_37905,6.711538567240997,216.3,3.102884219713822,1.775497665167782,0
smt_37904,6.711175835965352,216.3,3.102716521481901,1.7754465037132052,0
smt_37903,6.710812011468683,216.3,3.102548317831106,1.775392943892825,0
smt_37963,6.661533814387816,216.3,3.079765979837178,1.7531623179496896,0
smt_37983,6.6610315633815524,216.3,3.079533778724712,1.753079523821959,0
smt_37984,6.660521077295307,216.3,3.0792977703630635,1.7529954762225384,0
smt_37985,6.660018867465702,216.3,3.079065588287426,1.7529131729686303,0
smt_37947,6.659524822269529,216.3,3.0788371808920614,1.752831952592554,0
smt_37948,6.659072897512048,216.3,3.0786282466537433,1.752758912053915,0
sbt_22669,6.657760869645752,216.3,3.0780216688144946,1.4471806356428039,0
rbt_3405987,1.9060575862703106,61.95,3.076767693737386,1.4485627570764048,0
rbt_1132012,2.7675874895188026,90.3,3.0648809407738677,1.4405146683429881,0
rbt_1607268,2.346775932189188,76.65,3.0616776675658026,1.4388606365796972,0
sbt_35588,6.605051728834328,216.3,3.0536531339964528,1.4351260111941866,0
rbt_605823,2.7546954348246295,90.3,3.050604025276445,1.4346727505530759,0
smt_29426,6.5827817977818075,216.3,3.0433572805278812,1.632505812686528,0
sbt_21281,4.945726826042791,163.8,3.0193692466683704,1.4186603469394656,0
rbt_605989,2.691929767858659,90.3,2.981096088437053,1.4011381995518137,0
rbt_1121173,2.6867012347861152,90.3,2.975305907847304,1.3995880103631926,0
rbt_605807,2.6796632516856795,90.3,2.9675119066286597,1.3962797616691542,0
rbt_606130,2.2576932901916607,76.65,2.9454576519134514,1.3840522130069532,0
sbt_3491,4.816655435136058,163.8,2.9405710837216468,1.3823174503378564,0
rbt_637399,1.8109455177616323,61.95,2.923237316806509,1.3737066478449804,0
sbt_21191,4.778174979230148,163.8,2.9170787418987465,1.3716184083282157,0
sbt_26310,4.7147145975762905,163.8,2.8783361401564656,1.3535806047451933,0
rbt_637705,2.584103055289415,90.3,2.8616866614500722,2.1678394221363106,0
smt_37960,6.172904539334568,216.3,2.8538624777321164,1.666578196768918,0
smt_37962,6.1724702413664065,216.3,2.8536616927260314,1.6665094110829504,0
rbt_1105833,2.5761560454848054,90.3,2.8528859861404268,1.3411037535479773,0
smt_37981,6.15229601391125,216.3,2.844334726727346,1.6414482340803804,0
smt_37951,6.151890215751448,216.3,2.844147117776906,1.6413805594619972,0
smt_37952,6.151483705351221,216.3,2.8439591795428667,1.6413146960745113,0
smt_37953,6.1509832750791045,216.3,2.8437278201937604,1.6412316514808225,0
smt_37954,6.150501167689315,216.3,2.8435049318951986,1.643109459965509,0
smt_37955,6.149977973387695,216.3,2.843263048260608,1.6430218620060357,0
smt_37956,6.1495572822165085,216.3,2.8430685539604754,1.6429547414257406,0
smt_37957,6.149059677295406,216.3,2.8428385008300534,1.6428739780223112,0
smt_37958,6.148564881826713,216.3,2.8426097465680598,1.6427943306254482,0
smt_37959,6.148060625435828,216.3,2.842376618324469,1.6427132368255501,0
rbt_1607276,2.5661896919698868,90.3,2.841849049800539,1.3353925922250018,0
smt_25183,6.063042837386297,216.3,2.803071122231297,1.5149623083910893,0
smt_25117,6.0623991780897954,216.3,2.8027735451177973,1.5146647505888582,0
smt_25116,6.061737499689009,216.3,2.8024676373966755,1.514359149084784,0
smt_25115,6.061219782208461,216.3,2.8022282858106617,1.5141202400965803,0
smt_25114,6.0607653946814635,216.3,2.802018212982646,1.5139107029204466,0
smt_25113,6.060235109187699,216.3,2.801773050942071,1.5136663404989958,0
smt_25112,6.059674939327111,216.3,2.801514072735604,1.513408411591225,0
smt_25111,6.059307933543634,216.3,2.8013443983095856,1.5132395388903133,0
smt_25110,6.059042844689776,216.3,2.8012218422051665,1.5131176181251427,0
smt_25109,6.058343641230942,216.3,2.800898585867287,1.5127962649576903,0
smt_25108,6.057811279794793,216.3,2.800652464075262,1.5125518137178293,0
smt_25107,6.057094084365861,216.3,2.800320889674462,1.512222793499654,0
smt_25106,6.056467869619669,216.3,2.8000313775403,1.5119357974252978,0
smt_25105,6.055827246777531,216.3,2.7997352042429635,1.5116424747823425,0
smt_29427,6.0551862857193255,216.3,2.7994388745812877,1.511349278135546,0
smt_37979,6.05478966450916,216.3,2.7992555083260102,1.631113773901876,0
smt_37980,6.054358401863649,216.3,2.7990561266128746,1.631024879244123,0
smt_6407,6.053917510663595,216.3,2.798852293418213,1.5107697305184125,0
smt_22794,6.053285970071801,216.3,2.798560319034582,1.5104816707615702,0
smt_6477,6.052588951748631,216.3,2.798238072930481,1.5101640656526039,0
smt_6641,6.051683374380188,216.3,2.7978194056311545,1.5097519319950472,0
smt_6157,6.051047483280457,216.3,2.7975254199169934,1.5094628757804005,0
smt_6694,6.05032927116086,216.3,2.797193375478899,1.5091367391758457,0
rbt_1607319,2.5253955951568767,90.3,2.796672862853684,1.9866609552598762,0
rbt_622709,2.5224738174064982,90.3,2.793437228578625,1.3133868119028893,0
rbt_1607328,2.519838861007938,90.3,2.790519225922412,1.3122351768530935,0
rbt_607366,2.5188280328686194,90.3,2.7893998149154147,1.3108788225986479,0
smt_6074,7.9356561256267115,286.65,2.7684130910960096,1.6280205642649923,0
smt_6082,7.935168578952808,286.65,2.7682430067862582,1.6279258429646257,0
smt_6649,7.934688036205001,286.65,2.768075365848597,1.6278326619138166,0
smt_29408,7.934218144022712,286.65,2.767911440440507,1.6277418209263956,0
smt_6422,7.933747201778179,286.65,2.7677471487103364,1.6276509860099735,0
smt_22683,7.933273788079729,286.65,2.767581994794952,1.627559846664228,0
smt_22793,7.912781360539947,286.65,2.7604330579242795,1.6133053054308426,0
smt_22790,7.912289670219167,286.65,2.760261528072272,1.613206355491605,0
smt_6370,7.911814968137709,286.65,2.760095924694823,1.613111083422193,0
smt_29449,7.911729550233698,286.65,2.760066126019082,1.6137759776326603,0
smt_29409,7.911337746078974,286.65,2.7599294422044216,1.6130155773606625,0
smt_6401,7.911255173814544,286.65,2.7599006362513676,1.613682546510585,0
smt_5650,7.9108377229664315,286.65,2.7597550053955806,1.6129156166259035,0
smt_21348,7.9107780568422905,286.65,2.7597341904211725,1.6135912586849148,0
smt_6094,7.910344027075174,286.65,2.759582775885287,1.6128167108527889,0
smt_29477,7.909964891407405,286.65,2.7594505115672097,1.6127415692602494,0
smt_29450,7.909501503655209,286.65,2.7592888552782866,1.6126496942094624,0
smt_6231,7.908991987630439,286.65,2.7591111067958973,1.61254854565928,0
smt_6340,7.908514455109266,286.65,2.758944515998349,1.6124541473566634,0
sbt_21953,4.492638225467965,163.8,2.7427583794065717,1.2909408518572254,0
sbt_21849,4.492638153163454,163.8,2.742758335264624,1.2909408308598742,0
sbt_21968,4.492638065545742,163.8,2.742758281773957,1.2909408054638607,0
smt_6581,7.838698253433652,286.65,2.734588611000751,1.5843829834184373,0
smt_6701,7.838218061082505,286.65,2.734421092301589,1.584290399890173,0
smt_21959,7.837690672195482,286.65,2.734237108737304,1.5841881584202617,0
smt_19219,7.826977628264614,286.65,2.730499783102953,1.572941435557456,0
smt_5952,7.826471830840019,286.65,2.7303233318820928,1.5728365143521341,0
smt_29478,7.825944307989246,286.65,2.7301393015835504,1.5727272449712417,0
smt_22841,7.825479453350895,286.65,2.729977133560403,1.572631245244063,0
smt_6660,7.824977263256616,286.65,2.729801940783749,1.5725276854751862,0
smt_22845,7.781778832413566,286.65,2.7147318445538344,1.5475340789380336,0
smt_18913,7.781193281795131,286.65,2.7145275708338157,1.5474120716464006,0
smt_5786,7.780625697431715,286.65,2.714329564776458,1.5472940924942222,0
smt_29479,7.780137016657257,286.65,2.714159084827231,1.5471927784798287,0
smt_19224,7.779634747554068,286.65,2.713983864487727,1.5470888775405953,0
rbt_1633892,2.434840607335733,90.3,2.696390484314212,1.267405808143513,0
sbt_21137,4.413900452617759,163.8,2.694688921012063,1.2674463472378663,0
rbt_1134165,2.4279663367161053,90.3,2.6887777815239264,1.2653561309029793,0
rbt_1131858,2.4266785610913475,90.3,2.687351673412345,1.2643031560625748,0
rbt_1607353,2.406185003023043,90.3,2.6646567032370356,1.25241020969667,0
sbt_34390,4.348374282637137,163.8,2.6546851542351266,2.0110601282361844,0
smt_37973,5.638213289961157,216.3,2.6066635644758005,1.5462763357440579,0
smt_37991,5.638025290594913,216.3,2.6065766484488733,1.5462466614547035,0
smt_37974,5.637760283985448,216.3,2.606454130367752,1.5462065849625342,0
smt_37990,5.637308440174444,216.3,2.606245233552679,1.546131479279528,0
smt_37975,5.636890498469899,216.3,2.6060520103883027,1.5460637033324636,0
smt_37976,5.636438159526787,216.3,2.605842884663332,1.5459898031499828,0
smt_37977,5.635992010006124,216.3,2.6056366204374126,1.5459169372411168,0
smt_37978,5.635567364133611,216.3,2.605440297796399,1.5458494130310436,0
smt_37970,5.5885489432451365,216.3,2.583702701454062,1.5348350808069338,0
smt_37971,5.587954074348857,216.3,2.5834276811598964,1.5347307132889902,0
smt_37972,5.587646512868532,216.3,2.5832854890746795,1.5346829045703896,0
smt_37989,5.587207456487838,216.3,2.5830825041552647,1.5346253126755622,0
sbt_20633,4.163930329031012,163.8,2.5420820079554405,1.6777851952954776,0
smt_37964,5.471698293544162,216.3,2.529680209682923,1.5078354354878813,0
smt_37965,5.470144271788663,216.3,2.5289617530229602,1.5075786501909834,0
smt_37994,5.469941310386969,216.3,2.5288679197350756,1.5075411185996013,0
smt_37995,5.469936508310529,216.3,2.528865699635011,1.5075403877978226,0
smt_37996,5.4699307246487,216.3,2.528863025727554,1.5075470864237817,0
smt_37966,5.469579062023477,216.3,2.528700444763512,1.5074916952859627,0
smt_37967,5.469149070790743,216.3,2.528501650851014,1.5074224142545452,0
smt_37968,5.468708081780589,216.3,2.528297772436703,1.5073512923996495,0
smt_37969,5.468275175458557,216.3,2.5280976308176406,1.5072796337579109,0
sbt_4619,5.444042588420081,216.3,2.5168944005640688,1.1831107328944472,0
rbt_606110,1.5131496803226954,61.95,2.442533785831631,1.1476109567066548,0
rbt_1607284,2.1971887158181476,90.3,2.433210095036708,1.1439493703672852,0
rbt_1607302,1.4894389122632665,61.95,2.404259745380575,1.1295784498043402,0
rbt_607382,2.1480645959015474,90.3,2.378809076302932,1.1184499300044355,0
rbt_1607273,1.822417983769853,76.65,2.377583801395764,1.1172472478151254,0
sbt_26614,3.851470009558774,162.75,2.366494629529201,1.7924445997473633,0
sbt_26512,3.851468429416345,162.75,2.3664936586275545,1.7924436156812797,0
sbt_16246,3.8514678530315103,162.75,2.3664933044740466,1.7924432573773277,0
sbt_5828,3.8514651220013945,163.8,2.3513218083036596,1.7809515535248817,0
sbt_3790,3.8243189406905596,163.8,2.3347490480406345,1.0968561890539847,0
rbt_1137150,1.4375976621993116,61.95,2.320577340111883,1.0909733768788799,0
rbt_3405843,2.0894511059275995,90.3,2.3138993421125136,1.0881523900567585,0
rbt_1607288,1.7564345158565144,76.65,2.2914996945290467,1.077073173365176,0
rbt_605817,1.7472717910737137,76.65,2.2795457156865147,1.071524591353796,0
smt_13591,3.7106470104487004,163.8,2.2653522652311966,1.1230992259280346,0
sbt_30492,2.820281978278689,124.95,2.25712843399655,1.0607799078740803,0
rbt_607387,2.027890821744035,90.3,2.2457262699269487,1.055403730671546,0
sbt_21147,2.873231076054953,128.1,2.242959466085053,1.0540187918978465,0
sbt_17923,2.8732256097448694,128.1,2.242955198864067,1.0540144826128608,0
rbt_626695,2.018790759184449,90.3,2.235648681267386,1.693622004607765,0
rbt_623432,2.0187776815173035,90.3,2.2356341988010007,1.0512410491530801,0
sbt_3473,3.637462892585446,163.8,2.220673316596731,1.0439089301718432,0
sbt_26790,4.790793875708734,216.3,2.214883900004038,1.0414996192034707,0
smt_18691,6.3377979625099305,286.65,2.210988300195336,1.1613743476688376,0
smt_18692,6.337090564094742,286.65,2.210741518958571,1.1611855296452398,0
smt_22142,6.336459990461768,286.65,2.21052153862263,1.1610176135247778,0
smt_29410,6.335887735126342,286.65,2.2103219030616925,1.1608655509506305,0
smt_4821,6.335341785779512,286.65,2.2101314445419544,1.160720766543387,0
smt_18693,6.334676932786039,286.65,2.2098995055942923,1.1605448300341905,0
smt_5832,6.33406426737155,286.65,2.209685772674534,1.1603830749287962,0
smt_18694,6.3334227385167745,286.65,2.209461970527394,1.1602140820858542,0
smt_5643,6.332857350654996,286.65,2.209264730736088,1.1600654719090355,0
smt_29483,6.3322954337031545,286.65,2.2090687017977166,1.1599180770409263,0
smt_6014,6.331738904034573,286.65,2.2088745522534707,1.1597723937323972,0
smt_18695,6.331096906400906,286.65,2.208650586569303,1.15960470727288,0
smt_29482,6.330526112466621,286.65,2.208451460829102,1.1594559524888195,0
smt_6195,6.329927872674794,286.65,2.2082427603958816,1.1593003830243467,0
smt_6105,6.329327501781801,286.65,2.2080333165120534,1.1591446080888315,0
smt_19334,6.284710957475195,286.65,2.192468500776276,1.137662472360285,0
smt_19331,6.2840894286164,286.65,2.1922516757775687,1.137469071871977,0
smt_22269,6.2834790048653995,286.65,2.1920387248789113,1.1372794178618142,0
sbt_34896,4.684153275279369,216.3,2.1655817268975355,1.0180172432938084,0
sbt_34381,3.4983567174548504,163.8,2.135748911755098,1.0040454361429698,0
smt_29480,6.081491044801432,286.65,2.12157371177444,1.1654060259891537,0
smt_19271,6.080300851496353,286.65,2.1211585039233745,1.165133461069573,0
smt_5537,6.079828257725122,286.65,2.120993636045743,1.1650256377820114,0
smt_19274,6.057114166410531,286.65,2.1130696551231574,1.151312051036463,0
smt_4942,6.056559606049797,286.65,2.112876192586708,1.1511839492853317,0
smt_18740,6.056018442665009,286.65,2.112687403685683,1.1510592495659913,0
smt_5191,6.0554797198791865,286.65,2.1124994662058914,1.1509354145500383,0
smt_5198,6.054946028721367,286.65,2.112313284047224,1.1508130342581178,0
smt_5549,6.054357770785086,286.65,2.1121080658590916,1.1506784860236896,0
smt_19273,6.0537560432309725,286.65,2.1118981486938684,1.1505412319547998,0
smt_5414,6.053250861075124,286.65,2.11172191211412,1.1504262935014178,0
smt_5522,6.052689094097577,286.65,2.1115259354954046,1.150298796441689,0
smt_40861,6.024010264386236,286.65,2.101521110896995,1.1328579885904146,0
smt_40860,6.023648292608251,286.65,2.101394834330456,1.1327740864941236,0
smt_40859,6.023267749099826,286.65,2.1012620788766183,1.1326860286093259,0
smt_40858,6.022881894542947,286.65,2.1011274706237386,1.1325968977936245,0
smt_40857,6.022408284688756,286.65,2.1009622482779546,1.1324877111346878,0
smt_40856,6.021930888963497,286.65,2.1007957052026853,1.132377892262701,0
smt_40855,6.02146493378333,286.65,2.100633153247281,1.1322709386764436,0
smt_40854,6.0210242512150565,286.65,2.100479417831871,1.1321699986846763,0
smt_40853,6.020548426689317,286.65,2.1003134228813245,1.1320612419259188,0
smt_40852,6.020069753119857,286.65,2.1001464340205325,1.1319520781984294,0
smt_22899,6.018548248458774,286.65,2.0996156457208355,1.1240261324908285,0
smt_5757,6.018268599685762,286.65,2.0995180881513216,1.1242257480533084,0
smt_5956,6.017980404005365,286.65,2.099417548929135,1.1238790352260064,0
smt_6028,6.017677189307727,286.65,2.099311770210266,1.1240733020655709,0
smt_22898,6.01707639474612,286.65,2.0991021785264676,1.1239187999039937,0
smt_16985,6.016587721740097,286.65,2.0989317012873183,1.1237934160571486,0
smt_6106,6.016024926287636,286.65,2.098735365877424,1.1236493071925586,0
smt_6021,6.015467401196754,286.65,2.098540869072651,1.12350687958078,0
smt_6212,6.014925262500804,286.65,2.0983517399270206,1.1233686916947418,0
smt_6044,6.01436192802106,286.65,2.0981552164734207,1.1232254123436787,0
smt_6029,6.013812642410612,286.65,2.097963594073125,1.1230860123950452,0
smt_19276,6.013263738113219,286.65,2.097772104696745,1.1229470120181284,0
smt_22896,6.01263697239726,286.65,2.0975534527811828,1.1227886658082231,0
smt_6693,6.012213929783658,286.65,2.097405871196113,1.122682013091628,0
smt_41231,6.012196779110237,286.65,2.0973998880552025,1.1226776933249294,0
smt_41232,6.011599348701058,286.65,2.097191469981182,1.1225273942464586,0
rbt_605808,1.8935259752253113,90.3,2.0969279902827367,0.9852544312691821,0
smt_40865,6.003352800121557,286.65,2.0943145997284347,1.1204900605313919,0
smt_40864,6.002888337087002,286.65,2.0941525683192057,1.1203774137096827,0
smt_40863,6.002417192634841,286.65,2.0939882060473893,1.1202633800597193,0
smt_40862,6.001946230772605,286.65,2.0938239074734364,1.1201496263182837,0
rbt_1607326,1.8896910562983993,90.3,2.092681125468881,0.9839540423154145,0
smt_40375,3.414778573200775,163.8,2.0847244036634764,1.0378479669491711,0
smt_40374,3.4142276287930757,163.8,2.0843880517662243,1.037519268318604,0
smt_40358,3.4136795013439363,163.8,2.0840534196238925,1.0371929289188626,0
smt_40357,3.4131023601127177,163.8,2.0837010745498885,1.036850050972874,0
smt_40356,3.4126162400660878,163.8,2.0834042979646443,1.0365618367689156,0
smt_40355,3.4120610356042107,163.8,2.083065345301716,1.0362333247523894,0
...